20
-684.5515571303329
O 2.902807 -1.387612 -0.167341
C 1.888865 -0.768206 0.034934
O 0.702758 -1.355486 0.37902
C -0.299049 -0.34435 0.546036
C -1.482101 -0.753578 -0.352728
O -1.767872 -2.116134 -0.157464
C -2.783061 -0.040129 -0.010903
O -2.653379 1.345832 -0.304865
C 0.410852 0.95458 0.227409
O -0.164913 2.154028 0.300097
C 1.695521 0.674341 -0.040844
O 2.715295 1.495616 -0.357813
H -0.620268 -0.371396 1.595654
H -1.211681 -0.541037 -1.399126
H -0.924873 -2.588789 -0.202914
H -3.580515 -0.489793 -0.611953
H -3.01177 -0.204155 1.050759
H -3.476962 1.794167 -0.082718
H -1.131236 2.046177 0.171312
H 3.493582 0.928926 -0.477505
